Version 4.1
SHEET 1 880 680
WIRE 128 144 0 144
WIRE 304 160 272 160
WIRE 128 176 96 176
WIRE 96 224 96 176
WIRE 96 224 0 224
WIRE 0 240 0 224
FLAG 304 160 OUT
IOPIN 304 160 Out
FLAG 0 240 0
SYMBOL voltage 0 128 R0
WINDOW 123 24 124 Left 2
WINDOW 39 0 0 Left 0
SYMATTR Value2 0
SYMATTR InstName V1
SYMATTR Value ""
SYMBOL DiffAmp 192 160 R0
SYMATTR InstName X1
TEXT -8 72 Left 2 !.tran 0 0.1 0 1u
